data/public_benchmarks/arpae_go/extracted/Challenge_1_Original_Dataset_2_Scenarios/Original_Dataset_Real-Time_Edition_2/Network_03R-020/scenario_16/case.raw
0,   100.00, 33, 0, 1, 60.00     / PSS(R)E-33.7    FRI, AUG 24 2018  11:31
 GO Competition Network Model 03
 2015 S             REAL_TIME SEQUENCE RUN AT 2015/07/22 11.
     1,'A1          ', 115.0000,1,   1,   1,   1,1.00271,  -8.8469,1.05000,0.95000,1.10000,0.90000
     2,'A2          ', 115.0000,1,   1,   1,   1,1.01193, -10.9092,1.05000,0.95000,1.10000,0.90000
     3,'A3          ',  35.0000,1,   1,   1,   1,0.99547,  -8.3169,1.05000,0.95000,1.10000,0.90000
     4,'A4          ', 115.0000,1,   1,   1,   1,1.01398,  -8.6643,1.05000,0.95000,1.10000,0.90000
     5,'A5          ',  13.0000,1,   1,   1,   1,1.01154, -11.3592,1.05000,0.95000,1.10000,0.90000
     6,'A6          ',  14.0000,2,   1,   1,   1,1.00020,  -8.3272,1.05000,0.95000,1.10000,0.90000
     7,'A7          ', 115.0000,1,   1,   1,   1,0.99813,  -8.1749,1.05000,0.95000,1.10000,0.90000
     8,'A8          ',  13.0000,1,   1,   1,   1,1.01228, -10.8421,1.05000,0.95000,1.10000,0.90000
     9,'A9          ',  35.0000,1,   1,   1,   1,0.99785,  -8.6814,1.05000,0.95000,1.10000,0.90000
    10,'A10         ', 115.0000,1,   1,   1,   1,1.01091, -11.3095,1.05000,0.95000,1.10000,0.90000
    11,'A11         ', 115.0000,1,   1,   1,   1,1.00851, -11.9165,1.05000,0.95000,1.10000,0.90000
    12,'A12         ',  35.0000,1,   1,   1,   1,1.00230,  -6.4798,1.05000,0.95000,1.10000,0.90000
    13,'A13         ',  13.0000,1,   1,   1,   1,1.01682, -10.8668,1.05000,0.95000,1.10000,0.90000
    15,'A15         ',  35.0000,1,   1,   1,   1,1.00438,  -8.3842,1.05000,0.95000,1.10000,0.90000
    16,'A16         ', 115.0000,1,   1,   1,   1,1.01591,  -8.5795,1.05000,0.95000,1.10000,0.90000
    17,'A17         ', 115.0000,1,   1,   1,   1,1.01670,  -8.6140,1.05000,0.95000,1.10000,0.90000
    18,'A18         ', 230.0000,1,   1,   1,   1,1.01006,  -7.4350,1.05000,0.95000,1.10000,0.90000
    19,'A19         ', 230.0000,1,   1,   1,   1,1.01016,  -7.3848,1.05000,0.95000,1.10000,0.90000
    20,'A20         ',  13.0000,1,   1,   1,   1,1.01400,  -8.7260,1.05000,0.95000,1.10000,0.90000
    21,'A21         ', 115.0000,1,   1,   1,   1,1.00378, -14.2036,1.05000,0.95000,1.10000,0.90000
    22,'A22         ', 115.0000,1,   1,   1,   1,0.99741,  -6.2692,1.05000,0.95000,1.10000,0.90000
    23,'A23         ', 115.0000,2,   1,   1,   1,1.01000,   0.9182,1.05000,0.95000,1.10000,0.90000
    24,'A24         ', 115.0000,1,   1,   1,   1,0.98791,  -8.8766,1.05000,0.95000,1.10000,0.90000
    25,'A25         ',  14.0000,2,   1,   1,   1,1.00020,  -8.3272,1.05000,0.95000,1.10000,0.90000
    27,'A27         ', 115.0000,1,   1,   1,   1,1.01070, -11.2963,1.05000,0.95000,1.10000,0.90000
    28,'A28         ',  35.0000,1,   1,   1,   1,0.99802, -10.2809,1.05000,0.95000,1.10000,0.90000
    30,'A30         ', 115.0000,1,   1,   1,   1,0.99139,  -8.6854,1.05000,0.95000,1.10000,0.90000
    31,'A31         ', 230.0000,2,   1,   1,   1,1.00990,  -7.4338,1.05000,0.95000,1.10000,0.90000
    32,'A32         ', 115.0000,1,   1,   1,   1,1.01143, -11.0364,1.05000,0.95000,1.10000,0.90000
    33,'A33         ', 230.0000,2,   1,   1,   1,1.00904,  -7.7044,1.05000,0.95000,1.10000,0.90000
    34,'A34         ',  35.0000,1,   1,   1,   1,0.99907,  -4.0321,1.05000,0.95000,1.10000,0.90000
    35,'A35         ', 230.0000,2,   1,   1,   1,1.01016,  -7.3848,1.05000,0.95000,1.10000,0.90000
    36,'A36         ', 230.0000,1,   1,   1,   1,1.00904,  -7.7044,1.05000,0.95000,1.10000,0.90000
    37,'A37         ', 230.0000,1,   1,   1,   1,1.01152,  -9.2766,1.05000,0.95000,1.10000,0.90000
    38,'A38         ', 230.0000,1,   1,   1,   1,1.00916,  -7.5427,1.05000,0.95000,1.10000,0.90000
    39,'A39         ',  35.0000,1,   1,   1,   1,0.99226,  -6.8799,1.05000,0.95000,1.10000,0.90000
    40,'A40         ', 115.0000,1,   1,   1,   1,1.01462,  -7.8065,1.05000,0.95000,1.10000,0.90000
    41,'A41         ', 230.0000,1,   1,   1,   1,1.00536,  -9.9244,1.05000,0.95000,1.10000,0.90000
    43,'A43         ', 115.0000,2,   1,   1,   1,1.01310,  -8.6436,1.05000,0.95000,1.10000,0.90000
    44,'A44         ', 115.0000,1,   1,   1,   1,1.00829,   0.2218,1.05000,0.95000,1.10000,0.90000
    45,'A45         ', 230.0000,2,   1,   1,   1,1.00904,  -7.7044,1.05000,0.95000,1.10000,0.90000
    46,'A46         ', 230.0000,2,   1,   1,   1,1.00480,  -8.8023,1.05000,0.95000,1.10000,0.90000
    47,'A47         ', 115.0000,2,   1,   1,   1,1.01310,  -7.2536,1.05000,0.95000,1.10000,0.90000
    49,'A49         ',  35.0000,1,   1,   1,   1,0.99907,  -4.0321,1.05000,0.95000,1.10000,0.90000
    50,'A50         ', 115.0000,1,   1,   1,   1,1.01233, -10.8603,1.05000,0.95000,1.10000,0.90000
    51,'A51         ',  13.0000,1,   1,   1,   1,0.98723,  -8.9163,1.05000,0.95000,1.10000,0.90000
    52,'A52         ', 230.0000,2,   1,   1,   1,1.00510,  -9.9167,1.05000,0.95000,1.10000,0.90000
    53,'A53         ', 115.0000,1,   1,   1,   1,1.01508, -11.9702,1.05000,0.95000,1.10000,0.90000
    54,'A54         ',  35.0000,1,   1,   1,   1,0.99896, -12.0407,1.05000,0.95000,1.10000,0.90000
    55,'A55         ', 230.0000,2,   1,   1,   1,1.01080,  -8.3272,1.05000,0.95000,1.10000,0.90000
    56,'A56         ',  35.0000,1,   1,   1,   1,1.00331,  -6.3857,1.05000,0.95000,1.10000,0.90000
    57,'A57         ', 115.0000,1,   1,   1,   1,0.99386, -15.0109,1.05000,0.95000,1.10000,0.90000
    58,'A58         ', 115.0000,1,   1,   1,   1,1.02198, -11.2659,1.05000,0.95000,1.10000,0.90000
    59,'A59         ',  35.0000,2,   1,   1,   1,1.04000,   1.9865,1.05000,0.95000,1.10000,0.90000
    60,'A60         ', 115.0000,1,   1,   1,   1,0.99851,  -8.6133,1.05000,0.95000,1.10000,0.90000
    61,'A61         ',  13.0000,1,   1,   1,   1,1.01063, -11.3137,1.05000,0.95000,1.10000,0.90000
    62,'A62         ', 115.0000,1,   1,   1,   1,1.01594, -11.8936,1.05000,0.95000,1.10000,0.90000
    63,'A63         ', 230.0000,1,   1,   1,   1,1.00768,  -8.8529,1.05000,0.95000,1.10000,0.90000
    64,'A64         ',  35.0000,1,   1,   1,   1,1.00916,   0.8927,1.05000,0.95000,1.10000,0.90000
    65,'A65         ',  14.0000,2,   1,   1,   1,1.01577,  -8.5844,1.05000,0.95000,1.10000,0.90000
    66,'A66         ', 230.0000,1,   1,   1,   1,1.01006,  -7.4350,1.05000,0.95000,1.10000,0.90000
    67,'A67         ', 115.0000,1,   1,   1,   1,1.00261,  -3.9623,1.05000,0.95000,1.10000,0.90000
    68,'A68         ', 115.0000,1,   1,   1,   1,1.00963, -13.1400,1.05000,0.95000,1.10000,0.90000
    69,'A69         ', 230.0000,1,   1,   1,   1,1.01019,  -7.3763,1.05000,0.95000,1.10000,0.90000
    70,'A70         ',  35.0000,1,   1,   1,   1,1.00088,  -7.9957,1.05000,0.95000,1.10000,0.90000
    71,'A71         ', 115.0000,2,   1,   1,   1,1.01590,  -6.7661,1.05000,0.95000,1.10000,0.90000
    72,'A72         ', 115.0000,1,   1,   1,   1,1.01070, -11.2440,1.05000,0.95000,1.10000,0.90000
    73,'A73         ', 115.0000,1,   1,   1,   1,0.99857,  -8.0467,1.05000,0.95000,1.10000,0.90000
    74,'A74         ', 115.0000,1,   1,   1,   1,1.01241, -10.8251,1.05000,0.95000,1.10000,0.90000
    75,'A75         ',  13.0000,1,   1,   1,   1,1.01454,  -8.7921,1.05000,0.95000,1.10000,0.90000
    76,'A76         ', 115.0000,1,   1,   1,   1,1.01687, -11.8009,1.05000,0.95000,1.10000,0.90000
    77,'A77         ',  35.0000,1,   1,   1,   1,0.98865, -10.2860,1.05000,0.95000,1.10000,0.90000
    78,'A78         ',  35.0000,1,   1,   1,   1,0.99086,  -8.7464,1.05000,0.95000,1.10000,0.90000
    79,'A79         ', 230.0000,1,   1,   1,   1,1.01147,  -9.4256,1.05000,0.95000,1.10000,0.90000
    80,'A80         ',  14.0000,2,   1,   1,   1,1.01578,  -8.5845,1.05000,0.95000,1.10000,0.90000
    81,'A81         ', 115.0000,1,   1,   1,   1,1.01712, -10.8332,1.05000,0.95000,1.10000,0.90000
    82,'A82         ', 115.0000,1,   1,   1,   1,1.01506, -11.9732,1.05000,0.95000,1.10000,0.90000
    83,'A83         ', 115.0000,1,   1,   1,   1,1.01094, -12.9865,1.05000,0.95000,1.10000,0.90000
    84,'A84         ', 115.0000,1,   1,   1,   1,1.00918, -13.1860,1.05000,0.95000,1.10000,0.90000
    85,'A85         ', 115.0000,1,   1,   1,   1,0.99381, -15.0169,1.05000,0.95000,1.10000,0.90000
    86,'A86         ', 230.0000,2,   1,   1,   1,1.01070,  -6.6561,1.05000,0.95000,1.10000,0.90000
    87,'A87         ', 230.0000,2,   1,   1,   1,1.00549,  -9.9446,1.05000,0.95000,1.10000,0.90000
    88,'A88         ',  35.0000,1,   1,   1,   1,1.00693,  -8.4348,1.05000,0.95000,1.10000,0.90000
    89,'A89         ',  35.0000,1,   1,   1,   1,0.99918,  -7.7349,1.05000,0.95000,1.10000,0.90000
    90,'A90         ', 230.0000,2,   1,   1,   1,1.00780,  -8.7826,1.05000,0.95000,1.10000,0.90000
    91,'A91         ', 115.0000,1,   1,   1,   1,1.01140, -12.9088,1.05000,0.95000,1.10000,0.90000
    92,'A92         ', 115.0000,1,   1,   1,   1,1.00939, -11.8857,1.05000,0.95000,1.10000,0.90000
    93,'A93         ', 115.0000,2,   1,   1,   1,1.01610,  -8.5699,1.05000,0.95000,1.10000,0.90000
    94,'A94         ', 115.0000,1,   1,   1,   1,0.98857,  -8.8359,1.05000,0.95000,1.10000,0.90000
    95,'B95         ', 345.0000,1,   1,   2,   1,0.98771, -17.4206,1.05000,0.95000,1.10000,0.90000
    96,'B96         ', 345.0000,1,   1,   2,   1,0.98766, -17.4267,1.05000,0.95000,1.10000,0.90000
    97,'B97         ', 345.0000,1,   1,   2,   1,0.99017, -17.5293,1.05000,0.95000,1.10000,0.90000
    98,'B98         ', 345.0000,2,   1,   2,   1,0.99023, -17.5360,1.05000,0.95000,1.10000,0.90000
    99,'B99         ', 345.0000,2,   1,   2,   1,0.99134, -16.9152,1.05000,0.95000,1.10000,0.90000
   100,'B100        ', 345.0000,2,   1,   2,   1,0.99137, -16.9363,1.05000,0.95000,1.10000,0.90000
   101,'B101        ', 345.0000,1,   1,   2,   1,1.00820, -18.5095,1.05000,0.95000,1.10000,0.90000
   102,'B102        ', 345.0000,1,   1,   2,   1,1.01058, -18.3468,1.05000,0.95000,1.10000,0.90000
   103,'B103        ', 138.0000,1,   1,   2,   1,1.02467, -15.5891,1.05000,0.95000,1.10000,0.90000
   104,'B104        ', 138.0000,1,   1,   2,   1,1.00908,  14.9342,1.05000,0.95000,1.10000,0.90000
   105,'B105        ', 138.0000,1,   1,   2,   1,1.00915,  14.7301,1.05000,0.95000,1.10000,0.90000
   106,'B106        ', 138.0000,1,   1,   2,   1,1.01466,  -4.7408,1.05000,0.95000,1.10000,0.90000
   107,'B107        ', 138.0000,1,   1,   2,   1,1.01470,  -4.7463,1.05000,0.95000,1.10000,0.90000
   108,'B108        ', 138.0000,1,   1,   2,   1,1.02605,  18.9393,1.05000,0.95000,1.10000,0.90000
   109,'B109        ', 138.0000,1,   1,   2,   1,1.01156, -16.8973,1.05000,0.95000,1.10000,0.90000
   110,'B110        ', 138.0000,1,   1,   2,   1,1.01472,  -4.7021,1.05000,0.95000,1.10000,0.90000
   111,'B111        ', 138.0000,1,   1,   2,   1,1.01473,  -4.7064,1.05000,0.95000,1.10000,0.90000
   112,'B112        ', 138.0000,1,   1,   2,   1,1.02669,  -6.6665,1.05000,0.95000,1.10000,0.90000
   113,'B113        ', 138.0000,1,   1,   2,   1,1.02669,  -6.6665,1.05000,0.95000,1.10000,0.90000
   114,'B114        ', 138.0000,1,   1,   2,   1,1.02679,  -6.6587,1.05000,0.95000,1.10000,0.90000
   115,'B115        ', 138.0000,1,   1,   2,   1,1.01157, -17.4222,1.05000,0.95000,1.10000,0.90000
   116,'B116        ', 138.0000,2,   1,   2,   1,1.01730, -15.4440,1.05000,0.95000,1.10000,0.90000
   117,'B117        ', 138.0000,2,   1,   2,   1,1.01738, -15.4969,1.05000,0.95000,1.10000,0.90000
   118,'B118        ', 138.0000,1,   1,   2,   1,1.01892, -16.1032,1.05000,0.95000,1.10000,0.90000
   119,'B119        ', 138.0000,1,   1,   2,   1,1.01904, -16.0943,1.05000,0.95000,1.10000,0.90000
   120,'B120        ', 138.0000,1,   1,   2,   1,1.01114, -17.0954,1.05000,0.95000,1.10000,0.90000
   121,'B121        ', 138.0000,2,   1,   2,   1,1.01459, -16.5514,1.05000,0.95000,1.10000,0.90000
   122,'B122        ', 138.0000,1,   1,   2,   1,1.01461, -16.5483,1.05000,0.95000,1.10000,0.90000
   123,'B123        ', 138.0000,1,   1,   2,   1,1.01461, -16.5483,1.05000,0.95000,1.10000,0.90000
   124,'B124        ', 138.0000,1,   1,   2,   1,1.01459, -16.5514,1.05000,0.95000,1.10000,0.90000
   125,'B125        ', 138.0000,1,   1,   2,   1,1.01161, -16.8932,1.05000,0.95000,1.10000,0.90000
   126,'B126        ', 138.0000,1,   1,   2,   1,1.01158, -17.4223,1.05000,0.95000,1.10000,0.90000
   127,'B127        ', 138.0000,1,   1,   2,   1,1.01114,  -4.0296,1.05000,0.95000,1.10000,0.90000
   128,'B128        ', 138.0000,1,   1,   2,   1,1.01080,  -3.9972,1.05000,0.95000,1.10000,0.90000
   129,'B129        ', 138.0000,1,   1,   2,   1,0.99741,   0.9217,1.05000,0.95000,1.10000,0.90000
   130,'B130        ', 138.0000,1,   1,   2,   1,0.99756,   0.9240,1.05000,0.95000,1.10000,0.90000
   131,'B131        ', 138.0000,2,   1,   2,   1,1.02654,  -6.6802,1.05000,0.95000,1.10000,0.90000
   132,'B132        ', 138.0000,1,   1,   2,   1,1.01716, -15.4541,1.05000,0.95000,1.10000,0.90000
   133,'B133        ', 138.0000,2,   1,   2,   1,1.00048, -18.3415,1.05000,0.95000,1.10000,0.90000
   134,'B134        ', 138.0000,2,   1,   2,   1,0.98508, -19.1488,1.05000,0.95000,1.10000,0.90000
   135,'B135        ', 138.0000,1,   1,   2,   1,1.01124, -16.9220,1.05000,0.95000,1.10000,0.90000
   136,'B136        ', 138.0000,1,   1,   2,   1,1.01456, -16.5541,1.05000,0.95000,1.10000,0.90000
   137,'B137        ', 138.0000,1,   1,   2,   1,1.00604,   0.8427,1.05000,0.95000,1.10000,0.90000
   138,'B138        ', 138.0000,1,   1,   2,   1,0.99421,   7.0664,1.05000,0.95000,1.10000,0.90000
   139,'B139        ', 138.0000,1,   1,   2,   1,0.99422,   7.0665,1.05000,0.95000,1.10000,0.90000
   140,'B140        ', 138.0000,1,   1,   2,   1,1.01492,  -4.6217,1.05000,0.95000,1.10000,0.90000
   141,'B141        ', 138.0000,1,   1,   2,   1,1.01658,  -4.4965,1.05000,0.95000,1.10000,0.90000
   142,'B142        ', 138.0000,1,   1,   2,   1,1.01924, -16.2217,1.05000,0.95000,1.10000,0.90000
   143,'B143        ', 138.0000,1,   1,   2,   1,1.01940, -16.2356,1.05000,0.95000,1.10000,0.90000
   144,'B144        ', 138.0000,1,   1,   2,   1,1.01161, -16.8932,1.05000,0.95000,1.10000,0.90000
   145,'B145        ', 138.0000,1,   1,   2,   1,1.01895, -15.6147,1.05000,0.95000,1.10000,0.90000
   146,'B146        ', 138.0000,1,   1,   2,   1,1.01244,  -5.3027,1.05000,0.95000,1.10000,0.90000
   147,'B147        ', 138.0000,1,   1,   2,   1,1.01243,  -5.3159,1.05000,0.95000,1.10000,0.90000
   148,'B148        ', 138.0000,1,   1,   2,   1,1.01562, -18.4668,1.05000,0.95000,1.10000,0.90000
   149,'B149        ', 138.0000,1,   1,   2,   1,1.01603, -18.4473,1.05000,0.95000,1.10000,0.90000
   150,'B150        ', 138.0000,1,   1,   2,   1,1.01150, -17.4263,1.05000,0.95000,1.10000,0.90000
   151,'B151        ', 138.0000,2,   1,   2,   1,0.99431,   1.0305,1.05000,0.95000,1.10000,0.90000
   152,'B152        ', 138.0000,2,   1,   2,   1,1.02455, -15.5872,1.05000,0.95000,1.10000,0.90000
   153,'B153        ', 138.0000,1,   1,   2,   1,1.01773, -15.8171,1.05000,0.95000,1.10000,0.90000
   154,'B154        ', 138.0000,1,   1,   2,   1,1.01786, -15.8341,1.05000,0.95000,1.10000,0.90000
   155,'B155        ', 138.0000,1,   1,   2,   1,1.01520,  -4.8040,1.05000,0.95000,1.10000,0.90000
   156,'B156        ', 138.0000,2,   1,   2,   1,1.01529,  -4.7903,1.05000,0.95000,1.10000,0.90000
   157,'B157        ', 138.0000,1,   1,   2,   1,1.02161,  -5.1350,1.05000,0.95000,1.10000,0.90000
   158,'B158        ', 138.0000,1,   1,   2,   1,1.02171,  -5.1290,1.05000,0.95000,1.10000,0.90000
   159,'B159        ', 138.0000,2,   1,   2,   1,1.01930,  -5.5071,1.05000,0.95000,1.10000,0.90000
   160,'B160        ', 138.0000,1,   1,   2,   1,1.01915,  -5.5016,1.05000,0.95000,1.10000,0.90000
   161,'B161        ', 138.0000,1,   1,   2,   1,1.01645, -16.3431,1.05000,0.95000,1.10000,0.90000
   162,'B162        ', 138.0000,1,   1,   2,   1,1.01631, -16.3654,1.05000,0.95000,1.10000,0.90000
   163,'B163        ', 138.0000,1,   1,   2,   1,1.01694,  -5.0079,1.05000,0.95000,1.10000,0.90000
   164,'B164        ', 138.0000,1,   1,   2,   1,1.01686,  -4.9999,1.05000,0.95000,1.10000,0.90000
   165,'B165        ', 138.0000,1,   1,   2,   1,1.01513,  -4.8090,1.05000,0.95000,1.10000,0.90000
   166,'B166        ', 138.0000,1,   1,   2,   1,1.01524,  -4.7943,1.05000,0.95000,1.10000,0.90000
   167,'B167        ', 138.0000,1,   1,   2,   1,1.01158, -16.3810,1.05000,0.95000,1.10000,0.90000
   168,'B168        ', 138.0000,1,   1,   2,   1,1.01167, -16.3374,1.05000,0.95000,1.10000,0.90000
   169,'B169        ', 138.0000,1,   1,   2,   1,1.02022,  17.7914,1.05000,0.95000,1.10000,0.90000
   170,'B170        ', 138.0000,1,   1,   2,   1,1.02031,  17.7984,1.05000,0.95000,1.10000,0.90000
   171,'B171        ', 138.0000,1,   1,   2,   1,1.01728,  -5.0736,1.05000,0.95000,1.10000,0.90000
   172,'B172        ', 138.0000,1,   1,   2,   1,1.01724,  -5.0698,1.05000,0.95000,1.10000,0.90000
   173,'B173        ', 138.0000,1,   1,   2,   1,0.99977,   0.8164,1.05000,0.95000,1.10000,0.90000
   174,'B174        ', 138.0000,1,   1,   2,   1,1.00047,   0.8670,1.05000,0.95000,1.10000,0.90000
   175,'B175        ', 138.0000,1,   1,   2,   1,1.01324, -17.9700,1.05000,0.95000,1.10000,0.90000
   176,'B176        ', 138.0000,1,   1,   2,   1,1.01339, -17.9889,1.05000,0.95000,1.10000,0.90000
   177,'B177        ', 138.0000,1,   1,   2,   1,1.01143, -17.3230,1.05000,0.95000,1.10000,0.90000
   178,'B178        ', 138.0000,1,   1,   2,   1,1.01142, -17.3230,1.05000,0.95000,1.10000,0.90000
   179,'B179        ', 138.0000,1,   1,   2,   1,0.99659,   9.2989,1.05000,0.95000,1.10000,0.90000
   180,'B180        ', 138.0000,1,   1,   2,   1,0.99617,   9.5026,1.05000,0.95000,1.10000,0.90000
   181,'B181        ', 138.0000,1,   1,   2,   1,1.00357,  -2.5964,1.05000,0.95000,1.10000,0.90000
   182,'B182        ', 138.0000,1,   1,   2,   1,1.00388,  -2.6314,1.05000,0.95000,1.10000,0.90000
   183,'B183        ', 138.0000,1,   1,   2,   1,0.99784,  -0.7939,1.05000,0.95000,1.10000,0.90000
   184,'B184        ', 138.0000,1,   1,   2,   1,1.01929, -15.5184,1.05000,0.95000,1.10000,0.90000
   185,'B185        ', 138.0000,1,   1,   2,   1,1.01926, -15.5580,1.05000,0.95000,1.10000,0.90000
   186,'B186        ', 138.0000,1,   1,   2,   1,1.01952, -15.5070,1.05000,0.95000,1.10000,0.90000
   187,'B187        ', 138.0000,1,   1,   2,   1,1.01953, -15.5449,1.05000,0.95000,1.10000,0.90000
   188,'B188        ', 138.0000,1,   1,   2,   1,0.99573,   0.2195,1.05000,0.95000,1.10000,0.90000
   189,'B189        ', 138.0000,1,   1,   2,   1,0.99546,   0.2576,1.05000,0.95000,1.10000,0.90000
   190,'B190        ', 138.0000,2,   1,   2,   1,1.03300,  -6.1294,1.05000,0.95000,1.10000,0.90000
   191,'B191        ', 138.0000,1,   1,   2,   1,1.01153, -16.9916,1.05000,0.95000,1.10000,0.90000
   192,'B192        ', 138.0000,1,   1,   2,   1,1.01157, -16.9891,1.05000,0.95000,1.10000,0.90000
   193,'B193        ', 138.0000,1,   1,   2,   1,1.01136, -16.9127,1.05000,0.95000,1.10000,0.90000
   194,'B194        ', 138.0000,1,   1,   2,   1,1.02261, -13.0022,1.05000,0.95000,1.10000,0.90000
   195,'B195        ', 138.0000,1,   1,   2,   1,1.02275, -12.9912,1.05000,0.95000,1.10000,0.90000
   196,'B196        ', 138.0000,1,   1,   2,   1,1.03301,  -6.1296,1.05000,0.95000,1.10000,0.90000
   197,'B197        ', 138.0000,1,   1,   2,   1,1.01461, -16.5483,1.05000,0.95000,1.10000,0.90000
   198,'B198        ', 138.0000,1,   1,   2,   1,1.01116, -17.1760,1.05000,0.95000,1.10000,0.90000
   199,'B199        ', 138.0000,1,   1,   2,   1,1.01117, -17.1758,1.05000,0.95000,1.10000,0.90000
   200,'B200        ', 138.0000,1,   1,   2,   1,1.01492,  -4.7976,1.05000,0.95000,1.10000,0.90000
   201,'B201        ', 138.0000,1,   1,   2,   1,1.01497,  -4.8005,1.05000,0.95000,1.10000,0.90000
   202,'B202        ', 138.0000,1,   1,   2,   1,1.01478,  -4.7684,1.05000,0.95000,1.10000,0.90000
   203,'B203        ', 138.0000,1,   1,   2,   1,1.01475,  -4.7629,1.05000,0.95000,1.10000,0.90000
   204,'B204        ', 138.0000,1,   1,   2,   1,1.01510,  -4.7630,1.05000,0.95000,1.10000,0.90000
...
0 / END OF BUS DATA, BEGIN LOAD DATA
     1,'1 ',1,   1,  11,    12.213,     5.141,     0.000,     0.000,     0.000,     0.000,   1,1,0
     2,'1 ',1,   1,  11,     7.040,     1.565,     0.000,     0.000,     0.000,     0.000,   1,1,0
     2,'2 ',1,   1,  11,     0.087,     0.405,     0.000,     0.000,     0.000,     0.000,   1,1,0
     2,'99',0,   1,  11,    16.545,    15.406,     0.000,     0.000,     0.000,     0.000,   1,1,0
     3,'1 ',1,   1,  11,     7.008,     1.987,     0.000,     0.000,     0.000,     0.000,   1,1,0
     5,'1 ',1,   1,  11,     0.389,    -1.009,     0.000,     0.000,     0.000,     0.000,   1,1,0
     7,'1 ',1,   1,  11,     5.403,     3.091,     0.000,     0.000,     0.000,     0.000,   1,1,0
     8,'1 ',1,   1,  11,     1.685,     0.286,     0.000,     0.000,     0.000,     0.000,   1,1,0
     9,'1 ',1,   1,  11,    10.409,     2.042,     0.000,     0.000,     0.000,     0.000,   1,1,0
    12,'1 ',1,   1,  11,     7.739,     5.085,     0.000,     0.000,     0.000,     0.000,   1,1,0
    13,'1 ',1,   1,  11,     6.420,     1.764,     0.000,     0.000,     0.000,     0.000,   1,1,0
    15,'1 ',1,   1,  11,    10.322,     2.662,     0.000,     0.000,     0.000,     0.000,   1,1,0
    20,'1 ',1,   1,  11,    10.099,    -3.210,     0.000,     0.000,     0.000,     0.000,   1,1,0
    21,'1 ',1,   1,  11,     6.269,    -0.842,     0.000,     0.000,     0.000,     0.000,   1,1,0
    28,'1 ',1,   1,  11,    19.237,     2.288,     0.000,     0.000,     0.000,     0.000,   1,1,0
    32,'1 ',1,   1,  11,     5.538,     0.930,     0.000,     0.000,     0.000,     0.000,   1,1,0
    34,'1 ',1,   1,  11,     7.755,     6.373,     0.000,     0.000,     0.000,     0.000,   1,1,0
    36,'99',0,   1,  11,   108.412,    -4.520,     0.000,     0.000,     0.000,     0.000,   1,1,0
    37,'1 ',1,   1,  11,    -6.476,    -2.575,     0.000,     0.000,     0.000,     0.000,   1,1,0
    39,'1 ',1,   1,  11,    13.778,     5.546,     0.000,     0.000,     0.000,     0.000,   1,1,0
    43,'1 ',1,   1,  11,     1.589,     0.358,     0.000,     0.000,     0.000,     0.000,   1,1,0
    44,'1 ',1,   1,  11,     7.008,     1.780,     0.000,     0.000,     0.000,     0.000,   1,1,0
    47,'1 ',1,   1,  11,     8.351,    -1.184,     0.000,     0.000,     0.000,     0.000,   1,1,0
    49,'1 ',1,   1,  11,     7.755,     6.373,     0.000,     0.000,     0.000,     0.000,   1,1,0
    51,'1 ',1,   1,  11,     3.973,     2.384,     0.000,     0.000,     0.000,     0.000,   1,1,0
    53,'1 ',1,   1,  11,     5.546,     0.429,     0.000,     0.000,     0.000,     0.000,   1,1,0
    54,'1 ',1,   1,  11,    11.339,    -0.858,     0.000,     0.000,     0.000,     0.000,   1,1,0
    56,'1 ',1,   1,  11,     4.974,     4.601,     0.000,     0.000,     0.000,     0.000,   1,1,0
    57,'1 ',1,   1,  11,     5.697,    -0.215,     0.000,     0.000,     0.000,     0.000,   1,1,0
    58,'99',0,   1,  11,    10.106,    10.951,     0.000,     0.000,     0.000,     0.000,   1,1,0
    59,'1 ',1,   1,  11,     7.080,     4.180,     0.000,     0.000,     0.000,     0.000,   1,1,0
    61,'1 ',1,   1,  11,     2.980,    -0.366,     0.000,     0.000,     0.000,     0.000,   1,1,0
    62,'1 ',1,   1,  11,     6.190,    -0.215,     0.000,     0.000,     0.000,     0.000,   1,1,0
    63,'1 ',1,   1,  11,    23.457,     0.072,     0.000,     0.000,     0.000,     0.000,   1,1,0
    64,'1 ',1,   1,  11,     6.730,     5.967,     0.000,     0.000,     0.000,     0.000,   1,1,0
    65,'1 ',1,   1,  11,     0.723,     0.469,     0.000,     0.000,     0.000,     0.000,   1,1,0
    68,'1 ',1,   1,  11,     5.586,    -0.207,     0.000,     0.000,     0.000,     0.000,   1,1,0
    70,'1 ',1,   1,  11,     4.402,    -2.757,     0.000,     0.000,     0.000,     0.000,   1,1,0
    71,'1 ',1,   1,  11,     4.466,    -1.391,     0.000,     0.000,     0.000,     0.000,   1,1,0
    71,'2 ',1,   1,  11,     4.466,    -1.391,     0.000,     0.000,     0.000,     0.000,   1,1,0
    72,'1 ',1,   1,  11,     4.251,     0.278,     0.000,     0.000,     0.000,     0.000,   1,1,0
    74,'1 ',1,   1,  11,    -0.262,     0.278,     0.000,     0.000,     0.000,     0.000,   1,1,0
    74,'2 ',1,   1,  11,     5.538,     3.504,     0.000,     0.000,     0.000,     0.000,   1,1,0
    75,'1 ',1,   1,  11,     2.368,    -1.923,     0.000,     0.000,     0.000,     0.000,   1,1,0
    76,'1 ',1,   1,  11,     4.243,    -0.215,     0.000,     0.000,     0.000,     0.000,   1,1,0
    77,'1 ',1,   1,  11,    18.618,     0.334,     0.000,     0.000,     0.000,     0.000,   1,1,0
    78,'1 ',1,   1,  11,    11.085,     2.733,     0.000,     0.000,     0.000,     0.000,   1,1,0
    80,'1 ',1,   1,  11,     0.715,     0.429,     0.000,     0.000,     0.000,     0.000,   1,1,0
    81,'99',0,   1,  11,    30.844,    22.078,     0.000,     0.000,     0.000,     0.000,   1,1,0
    82,'1 ',1,   1,  11,     5.546,     0.429,     0.000,     0.000,     0.000,     0.000,   1,1,0
    84,'1 ',1,   1,  11,     6.881,     0.437,     0.000,     0.000,     0.000,     0.000,   1,1,0
    85,'1 ',1,   1,  11,    10.862,     3.043,     0.000,     0.000,     0.000,     0.000,   1,1,0
    88,'1 ',1,   1,  11,    -0.207,     0.008,     0.000,     0.000,     0.000,     0.000,   1,1,0
    89,'1 ',1,   1,  11,    15.535,     0.016,     0.000,     0.000,     0.000,     0.000,   1,1,0
    92,'1 ',1,   1,  11,     3.600,    -0.215,     0.000,     0.000,     0.000,     0.000,   1,1,0
    94,'1 ',1,   1,  11,     1.724,     1.994,     0.000,     0.000,     0.000,     0.000,   1,1,0
    96,'99',1,   1,   4,    17.608,    31.272,     0.000,     0.000,     0.000,     0.000,   1,1,0
    97,'99',1,   1,   4,    14.963,    20.108,     0.000,     0.000,     0.000,     0.000,   1,1,0
    99,'1 ',1,   1,   4,     5.562,    14.303,     0.000,     0.000,     0.000,     0.000,   1,1,0
   100,'1 ',1,   1,   4,     6.357,    16.687,     0.000,     0.000,     0.000,     0.000,   1,1,0
   101,'99',1,   1,   4,    81.656,    15.564,     0.000,     0.000,     0.000,     0.000,   1,1,0
   102,'99',0,   1,   4,     1.156,   -45.892,     0.000,     0.000,     0.000,     0.000,   1,1,0
   105,'1 ',1,   1,   4,     3.401,     1.255,     0.000,     0.000,     0.000,     0.000,   1,1,0
   106,'1 ',1,   1,   4,     4.354,     1.828,     0.000,     0.000,     0.000,     0.000,   1,1,0
   108,'1 ',1,   1,   4,     6.118,     2.034,     0.000,     0.000,     0.000,     0.000,   1,1,0
   108,'99',1,   1,   4,     1.640,   -12.833,     0.000,     0.000,     0.000,     0.000,   1,1,0
   109,'1 ',1,   1,   4,     6.540,     1.716,     0.000,     0.000,     0.000,     0.000,   1,1,0
   110,'1 ',1,   1,   4,     1.486,     0.636,     0.000,     0.000,     0.000,     0.000,   1,1,0
   111,'1 ',1,   1,   4,     2.654,     1.128,     0.000,     0.000,     0.000,     0.000,   1,1,0
   112,'1 ',1,   1,   4,    10.743,     3.997,     0.000,     0.000,     0.000,     0.000,   1,1,0
   115,'1 ',1,   1,   4,     3.822,     1.375,     0.000,     0.000,     0.000,     0.000,   1,1,0
   116,'1 ',1,   1,   4,    18.761,    16.766,     0.000,     0.000,     0.000,     0.000,   1,1,0
   118,'1 ',1,   1,   4,     4.339,     1.836,     0.000,     0.000,     0.000,     0.000,   1,1,0
   120,'1 ',1,   1,   4,     7.644,     2.495,     0.000,     0.000,     0.000,     0.000,   1,1,0
   121,'1 ',1,   1,   4,     0.000,     0.000,     0.000,     0.000,     0.000,     0.000,   1,1,0
   128,'1 ',1,   1,   4,     0.795,     0.302,     0.000,     0.000,     0.000,     0.000,   1,1,0
   129,'1 ',1,   1,   4,     3.568,     2.471,     0.000,     0.000,     0.000,     0.000,   1,1,0
   131,'1 ',1,   1,   4,    63.568,    30.990,     0.000,     0.000,     0.000,     0.000,   1,1,0
   132,'1 ',1,   1,   4,     4.156,     1.438,     0.000,     0.000,     0.000,     0.000,   1,1,0
   133,'1 ',1,   1,   4,     1.526,     0.477,     0.000,     0.000,     0.000,     0.000,   1,1,0
   134,'1 ',1,   1,   4,    42.114,     2.000,     0.000,     0.000,     0.000,     0.000,   1,1,0
   135,'1 ',1,   1,   4,     4.768,     1.693,     0.000,     0.000,     0.000,     0.000,   1,1,0
   136,'1 ',1,   1,   4,     2.209,     0.715,     0.000,     0.000,     0.000,     0.000,   1,1,0
   137,'1 ',1,   1,   4,     8.399,     2.789,     0.000,     0.000,     0.000,     0.000,   1,1,0
   137,'99',0,   1,   4,    28.183,   -12.764,     0.000,     0.000,     0.000,     0.000,   1,1,0
   138,'1 ',1,   1,   4,     0.342,     0.079,     0.000,     0.000,     0.000,     0.000,   1,1,0
   140,'1 ',1,   1,   4,     2.209,     1.319,     0.000,     0.000,     0.000,     0.000,   1,1,0
   141,'1 ',1,   1,   4,     4.633,     0.532,     0.000,     0.000,     0.000,     0.000,   1,1,0
   142,'1 ',1,   1,   4,     6.452,     2.193,     0.000,     0.000,     0.000,     0.000,   1,1,0
   143,'99',0,   1,   4,     0.426,     1.249,     0.000,     0.000,     0.000,     0.000,   1,1,0
   145,'99',0,   1,   4,    53.244,    16.969,     0.000,     0.000,     0.000,     0.000,   1,1,0
   146,'1 ',1,   1,   4,     1.271,     0.318,     0.000,     0.000,     0.000,     0.000,   1,1,0
   147,'1 ',1,   1,   4,     0.850,     0.389,     0.000,     0.000,     0.000,     0.000,   1,1,0
   148,'1 ',1,   1,   4,     5.189,     2.217,     0.000,     0.000,     0.000,     0.000,   1,1,0
   149,'99',0,   1,   4,     9.227,    -8.412,     0.000,     0.000,     0.000,     0.000,   1,1,0
   150,'1 ',1,   1,   4,     3.822,     1.200,     0.000,     0.000,     0.000,     0.000,   1,1,0
   151,'1 ',1,   1,   4,    15.026,    24.005,     0.000,     0.000,     0.000,     0.000,   1,1,0
   152,'1 ',1,   1,   4,     5.562,    11.124,     0.000,     0.000,     0.000,     0.000,   1,1,0
   153,'1 ',1,   1,   4,     7.223,     2.431,     0.000,     0.000,     0.000,     0.000,   1,1,0
   157,'1 ',1,   1,   4,     2.336,     0.993,     0.000,     0.000,     0.000,     0.000,   1,1,0
   159,'1 ',1,   1,   4,    11.561,     0.437,     0.000,     0.000,     0.000,     0.000,   1,1,0
   160,'1 ',1,   1,   4,     8.923,     2.114,     0.000,     0.000,     0.000,     0.000,   1,1,0
   161,'1 ',1,   1,   4,     5.070,     2.201,     0.000,     0.000,     0.000,     0.000,   1,1,0
   162,'1 ',1,   1,   4,     6.603,     2.924,     0.000,     0.000,     0.000,     0.000,   1,1,0
   163,'1 ',1,   1,   4,     0.675,     0.064,     0.000,     0.000,     0.000,     0.000,   1,1,0
   165,'1 ',1,   1,   4,     0.524,     0.310,     0.000,     0.000,     0.000,     0.000,   1,1,0
   166,'1 ',1,   1,   4,     0.421,     0.246,     0.000,     0.000,     0.000,     0.000,   1,1,0
   168,'1 ',1,   1,   4,     8.240,     2.749,     0.000,     0.000,     0.000,     0.000,   1,1,0
   169,'1 ',1,   1,   4,     2.042,     0.739,     0.000,     0.000,     0.000,     0.000,   1,1,0
   171,'1 ',1,   1,   4,     4.251,     0.604,     0.000,     0.000,     0.000,     0.000,   1,1,0
   173,'1 ',1,   1,   4,     5.769,     2.153,     0.000,     0.000,     0.000,     0.000,   1,1,0
   175,'1 ',1,   1,   4,     2.376,     0.906,     0.000,     0.000,     0.000,     0.000,   1,1,0
   176,'1 ',1,   1,   4,     5.101,     1.812,     0.000,     0.000,     0.000,     0.000,   1,1,0
   179,'1 ',1,   1,   4,     4.760,     1.637,     0.000,     0.000,     0.000,     0.000,   1,1,0
   181,'1 ',1,   1,   4,     3.608,     1.502,     0.000,     0.000,     0.000,     0.000,   1,1,0
   182,'1 ',1,   1,   4,     3.401,     1.422,     0.000,     0.000,     0.000,     0.000,   1,1,0
   184,'1 ',1,   1,   4,     2.892,     0.977,     0.000,     0.000,     0.000,     0.000,   1,1,0
   185,'1 ',1,   1,   4,     3.393,     1.232,     0.000,     0.000,     0.000,     0.000,   1,1,0
   188,'1 ',1,   1,   4,     0.596,     0.294,     0.000,     0.000,     0.000,     0.000,   1,1,0
   189,'1 ',1,   1,   4,     1.017,     0.461,     0.000,     0.000,     0.000,     0.000,   1,1,0
   191,'1 ',1,   1,   4,     3.655,     1.375,     0.000,     0.000,     0.000,     0.000,   1,1,0
   193,'1 ',1,   1,   4,     3.655,     1.295,     0.000,     0.000,     0.000,     0.000,   1,1,0
   194,'1 ',1,   1,   4,     9.686,     3.147,     0.000,     0.000,     0.000,     0.000,   1,1,0
   195,'99',0,   1,   4,    18.155,     5.789,     0.000,     0.000,     0.000,     0.000,   1,1,0
   196,'1 ',1,   1,   4,     0.000,     0.000,     0.000,     0.000,     0.000,     0.000,   1,1,0
   198,'1 ',1,   1,   4,     3.059,     1.097,     0.000,     0.000,     0.000,     0.000,   1,1,0
   200,'1 ',1,   1,   4,     4.219,     1.176,     0.000,     0.000,     0.000,     0.000,   1,1,0
   201,'1 ',1,   1,   4,     5.896,     1.597,     0.000,     0.000,     0.000,     0.000,   1,1,0
   202,'1 ',1,   1,   4,     1.708,     0.445,     0.000,     0.000,     0.000,     0.000,   1,1,0
   204,'1 ',1,   1,   4,     9.392,     3.703,     0.000,     0.000,     0.000,     0.000,   1,1,0
   205,'1 ',1,   1,   4,     8.908,     3.846,     0.000,     0.000,     0.000,     0.000,   1,1,0
   206,'1 ',1,   1,   4,     3.282,     1.351,     0.000,     0.000,     0.000,     0.000,   1,1,0
   207,'1 ',1,   1,   4,     2.042,     0.826,     0.000,     0.000,     0.000,     0.000,   1,1,0
   208,'99',1,   1,   4,    27.309,    -1.341,     0.000,     0.000,     0.000,     0.000,   1,1,0
   209,'1 ',1,   1,   4,     0.421,     0.238,     0.000,     0.000,     0.000,     0.000,   1,1,0
   213,'99',1,   1,   9,    37.954,    13.209,     0.000,     0.000,     0.000,     0.000,   1,1,0
   214,'99',1,   1,   9,   216.955,    17.613,     0.000,     0.000,     0.000,     0.000,   1,1,0
   216,'99',1,   1,   9,    61.500,    35.797,     0.000,     0.000,     0.000,     0.000,   1,1,0
   220,'99',0,   1,   9,   659.876,    -1.015,     0.000,     0.000,     0.000,     0.000,   1,1,0
   221,'1 ',1,   1,   9,    25.554,    41.375,     0.000,     0.000,     0.000,     0.000,   1,1,0
   222,'1 ',1,   1,   9,    36.838,    73.159,     0.000,     0.000,     0.000,     0.000,   1,1,0
   223,'1 ',1,   1,   9,    47.676,    95.353,     0.000,     0.000,     0.000,     0.000,   1,1,0
   224,'1 ',1,   1,   9,    47.676,    95.353,     0.000,     0.000,     0.000,     0.000,   1,1,0
   224,'99',1,   1,   9,   798.244,   130.908,     0.000,     0.000,     0.000,     0.000,   1,1,0
   225,'99',1,   1,   9,   297.216,    67.212,     0.000,     0.000,     0.000,     0.000,   1,1,0
   226,'99',1,   1,   9,    56.659,    46.687,     0.000,     0.000,     0.000,     0.000,   1,1,0
   227,'99',1,   1,   9,    54.082,   -43.180,     0.000,     0.000,     0.000,     0.000,   1,1,0
   228,'1 ',1,   1,   9,    30.831,    -2.145,     0.000,     0.000,     0.000,     0.000,   1,1,0
   229,'99',1,   1,   9,    11.160,    20.291,     0.000,     0.000,     0.000,     0.000,   1,1,0
   231,'99',1,   1,   9,   119.263,    44.182,     0.000,     0.000,     0.000,     0.000,   1,1,0
   234,'99',1,   1,   9,     5.907,    30.513,     0.000,     0.000,     0.000,     0.000,   1,1,0
   235,'99',1,   1,   9,    39.354,    32.108,     0.000,     0.000,     0.000,     0.000,   1,1,0
   236,'1 ',1,   1,   9,     6.118,    15.892,     0.000,     0.000,     0.000,     0.000,   1,1,0
   236,'99',1,   1,   9,   246.953,   -10.165,     0.000,     0.000,     0.000,     0.000,   1,1,0
   237,'1 ',1,   1,   9,     3.059,     0.795,     0.000,     0.000,     0.000,     0.000,   1,1,0
   238,'1 ',1,   1,   9,     1.804,     0.882,     0.000,     0.000,     0.000,     0.000,   1,1,0
   239,'1 ',1,   1,   9,     1.255,     0.318,     0.000,     0.000,     0.000,     0.000,   1,1,0
   240,'1 ',1,   1,   9,     3.528,     0.874,     0.000,     0.000,     0.000,     0.000,   1,1,0
   241,'1 ',1,   1,   9,     3.687,     0.318,     0.000,     0.000,     0.000,     0.000,   1,1,0
   241,'99',1,   1,   9,     2.830,    -0.221,     0.000,     0.000,     0.000,     0.000,   1,1,0
   242,'1 ',1,   1,   9,    11.037,     6.166,     0.000,     0.000,     0.000,     0.000,   1,1,0
   243,'1 ',1,   1,   9,    15.511,     8.923,     0.000,     0.000,     0.000,     0.000,   1,1,0
   245,'99',1,   1,   9,    63.547,     7.300,     0.000,     0.000,     0.000,     0.000,   1,1,0
   246,'1 ',1,   1,   9,    15.892,    31.784,     0.000,     0.000,     0.000,     0.000,   1,1,0
   247,'1 ',1,   1,   9,    16.234,    16.385,     0.000,     0.000,     0.000,     0.000,   1,1,0
   248,'1 ',1,   1,   9,    29.003,     9.543,     0.000,     0.000,     0.000,     0.000,   1,1,0
   249,'99',1,   1,   9,    66.012,     8.608,     0.000,     0.000,     0.000,     0.000,   1,1,0
   250,'1 ',1,   1,   9,     0.119,     0.532,     0.000,     0.000,     0.000,     0.000,   1,1,0
   251,'1 ',1,   1,   9,    14.716,     9.734,     0.000,     0.000,     0.000,     0.000,   1,1,0
   252,'1 ',1,   1,   9,    11.196,     4.871,     0.000,     0.000,     0.000,     0.000,   1,1,0
   253,'1 ',1,   1,   9,     6.897,     0.795,     0.000,     0.000,     0.000,     0.000,   1,1,0
   253,'99',1,   1,   9,     6.285,    -4.151,     0.000,     0.000,     0.000,     0.000,   1,1,0
   254,'99',1,   1,   9,    55.842,    16.281,     0.000,     0.000,     0.000,     0.000,   1,1,0
   256,'1 ',1,   1,   9,     4.466,     0.954,     0.000,     0.000,     0.000,     0.000,   1,1,0
   257,'1 ',1,   1,   9,     4.466,     1.033,     0.000,     0.000,     0.000,     0.000,   1,1,0
   257,'99',1,   1,   9,    17.729,    11.353,     0.000,     0.000,     0.000,     0.000,   1,1,0
   258,'1 ',1,   1,   9,     2.821,     0.238,     0.000,     0.000,     0.000,     0.000,   1,1,0
   259,'1 ',1,   1,   9,     1.883,     0.477,     0.000,     0.000,     0.000,     0.000,   1,1,0
   260,'1 ',1,   1,   9,     2.821,     0.477,     0.000,     0.000,     0.000,     0.000,   1,1,0
   261,'1 ',1,   1,   9,     1.645,     0.318,     0.000,     0.000,     0.000,     0.000,   1,1,0
   262,'99',1,   1,   9,     2.038,    -6.743,     0.000,     0.000,     0.000,     0.000,   1,1,0
   263,'1 ',1,   1,   9,     0.938,     0.238,     0.000,     0.000,     0.000,     0.000,   1,1,0
   264,'1 ',1,   1,   9,     0.318,     0.079,     0.000,     0.000,     0.000,     0.000,   1,1,0
   266,'1 ',1,   1,   5,     2.360,     2.622,     0.000,     0.000,     0.000,     0.000,   1,1,0
   267,'1 ',1,   1,   5,    11.673,     5.554,     0.000,     0.000,     0.000,     0.000,   1,1,0
   269,'1 ',1,   1,   5,    -6.818,     1.208,     0.000,     0.000,     0.000,     0.000,   1,1,0
   270,'1 ',1,   1,   5,     5.078,     2.400,     0.000,     0.000,     0.000,     0.000,   1,1,0
   272,'1 ',1,   1,   5,    24.371,     4.617,     0.000,     0.000,     0.000,     0.000,   1,1,0
   273,'1 ',1,   1,   5,     2.988,     2.193,     0.000,     0.000,     0.000,     0.000,   1,1,0
   274,'1 ',1,   1,   5,    12.340,     3.314,     0.000,     0.000,     0.000,     0.000,   1,1,0
   277,'99',1,   1,   5,   128.290,    62.800,     0.000,     0.000,     0.000,     0.000,   1,1,0
   279,'1 ',1,   1,   5,     5.872,     2.447,     0.000,     0.000,     0.000,     0.000,   1,1,0
   281,'1 ',1,   1,   5,     1.621,     2.400,     0.000,     0.000,     0.000,     0.000,   1,1,0
   284,'1 ',1,   1,   5,     4.728,     1.534,     0.000,     0.000,     0.000,     0.000,   1,1,0
   284,'99',1,   1,   5,     5.275,     4.397,     0.000,     0.000,     0.000,     0.000,   1,1,0
   285,'1 ',1,   1,   5,     1.708,     1.581,     0.000,     0.000,     0.000,     0.000,   1,1,0
   286,'1 ',1,   1,   5,     1.128,     2.249,     0.000,     0.000,     0.000,     0.000,   1,1,0
   287,'1 ',1,   1,   5,     1.081,     2.106,     0.000,     0.000,     0.000,     0.000,   1,1,0
   289,'1 ',1,   1,   5,     4.784,     2.575,     0.000,     0.000,     0.000,     0.000,   1,1,0
   289,'99',1,   1,   5,     1.691,    -2.218,     0.000,     0.000,     0.000,     0.000,   1,1,0
...
0 / END OF LOAD DATA, BEGIN FIXED SHUNT DATA
     2,'1 ',1,     0.000,    15.498
    23,'1 ',1,     0.000,  -120.310
    36,'1 ',1,     0.000,    -4.438
    58,'1 ',1,     0.000,    10.592
    81,'1 ',1,     0.000,    21.502
    98,'1 ',1,     0.000,   -24.285
   100,'1 ',1,     0.000,     4.571
   102,'1 ',1,     0.000,   -43.607
   133,'1 ',1,     0.000,    -1.321
   137,'1 ',1,     0.000,   -13.204
   143,'1 ',1,     0.000,     1.197
   145,'1 ',1,     0.000,    16.360
   149,'1 ',1,     0.000,    -8.091
   156,'1 ',1,     0.000,    40.892
   195,'1 ',1,     0.000,     5.562
   220,'1 ',1,     0.000,    -1.094
   304,'1 ',1,     0.000,     2.218
   348,'1 ',1,     0.000,     5.534
   357,'1 ',1,     0.000,   -30.025
   363,'1 ',1,     0.000,    24.399
   364,'1 ',1,     0.000,   -71.188
   367,'1 ',1,     0.000,    60.608
   376,'1 ',1,     0.000,    -9.534
   380,'1 ',1,     0.000,    11.017
   386,'1 ',1,     0.000,    -5.842
   390,'1 ',1,     0.000,    12.518
   428,'1 ',1,     0.000,    -7.317
   442,'1 ',1,     0.000,    -7.663
   443,'1 ',1,     0.000,    12.284
   444,'1 ',1,     0.000,    19.281
   460,'1 ',1,     0.000,    32.216
   525,'1 ',1,     0.000,   100.748
   576,'1 ',1,     0.000,   -63.285
   591,'1 ',1,     0.000,    22.609
   595,'1 ',1,     0.000,     6.261
   623,'1 ',1,     0.000,    -2.498
   624,'1 ',1,     0.000,     6.887
   631,'1 ',1,     0.000,    30.406
   639,'1 ',1,     0.000,   -66.624
   640,'1 ',1,     0.000,   -75.050
   642,'1 ',1,     0.000,    88.396
   653,'1 ',1,     0.000,    26.664
   684,'1 ',1,     0.000,     0.059
   696,'1 ',1,     0.000,    -1.903
   697,'1 ',1,     0.000,   -37.362
   743,'1 ',1,     0.000,    -1.150
   748,'1 ',1,     0.000,   -19.101
   791,'1 ',1,     0.000,     0.336
   794,'1 ',1,     0.000,    -2.220
0 / END OF FIXED SHUNT DATA, BEGIN GENERATOR DATA
     6,'1 ',     0.000,     0.000,    33.333,   -33.333,0.95340,     0,   100.000, 0.00000E+0, 1.00000E+0, 0.00000E+0, 0.00000E+0,1.00000,0,  100.0,    63.000,    28.500,   1,1.0000,0,1,0,1,0,1,0,1
    23,'98',     5.515,   -40.084,   300.000,  -300.000,1.01000,     0,   100.000, 0.00000E+0, 1.00000E+0, 0.00000E+0, 0.00000E+0,1.00000,1,  100.0,    60.873,     0.000,   1,1.0000,0,1,0,1,0,1,0,1
    25,'1 ',     0.000,     0.000,    22.500,   -22.500,0.95340,     0,    67.500, 0.00000E+0, 1.65000E-1, 0.00000E+0, 0.00000E+0,1.00000,0,  100.0,   280.000,     0.000,   1,1.0000,0,1,0,1,0,1,0,1
    25,'2 ',     0.000,     0.000,    22.500,   -22.500,0.95340,     0,    67.500, 0.00000E+0, 1.65000E-1, 0.00000E+0, 0.00000E+0,1.00000,0,  100.0,    60.430,    14.250,   1,1.0000,0,1,0,1,0,1,0,1
    31,'99',    79.587,    12.159,   600.000,  -600.000,1.00990,     0,   100.000, 0.00000E+0, 1.00000E+0, 0.00000E+0, 0.00000E+0,1.00000,1,  100.0,   161.545,     0.000,   1,1.0000,0,1,0,1,0,1,0,1
    33,'1 ',     0.000,     0.000,    19.290,   -19.290,1.00870,    36,    57.870, 0.00000E+0, 1.48000E-1, 4.70000E-3, 9.39000E-2,1.00000,0,  100.0,    46.200,    11.400,   1,1.0000,0,1,0,1,0,1,0,1
    35,'1 ',     0.000,     0.000,    33.127,   -33.127,1.01010,     0,    99.380, 0.00000E+0, 1.78000E-1, 4.50000E-3, 9.28000E-2,1.00000,0,  100.0,   288.000,     0.000,   1,1.0000,0,1,0,1,0,1,0,1
    35,'2 ',     0.000,     0.000,    23.050,   -23.050,1.01010,     0,    69.150, 0.00000E+0, 1.35000E-1, 2.00000E-3, 5.85000E-2,1.00000,0,  100.0,   300.000,     0.000,   1,1.0000,0,1,0,1,0,1,0,1
    35,'3 ',     0.000,     0.000,    16.237,   -16.237,1.01010,     0,    48.710, 0.00000E+0, 1.93000E-1, 1.60000E-3, 5.41000E-2,1.00000,0,  100.0,    40.140,    25.140,   1,1.0000,0,1,0,1,0,1,0,1
    43,'99',     2.591,    -4.636,   600.000,  -600.000,1.01310,     0,   100.000, 0.00000E+0, 1.00000E+0, 0.00000E+0, 0.00000E+0,1.00000,1,  100.0,   357.500,     0.000,   1,1.0000,0,1,0,1,0,1,0,1
    45,'1 ',     0.000,     0.000,    67.750,   -67.750,1.00870,    36,   203.250, 0.00000E+0, 2.26000E-1, 9.40000E-3, 1.87600E-1,1.00000,0,  100.0,   173.250,    50.540,   1,1.0000,0,1,0,1,0,1,0,1
    46,'99',    26.425,    -5.980,   600.000,  -600.000,1.00480,     0,   100.000, 0.00000E+0, 1.00000E+0, 0.00000E+0, 0.00000E+0,1.00000,1,  100.0,    66.162,     0.000,   1,1.0000,0,1,0,1,0,1,0,1
    47,'99',    35.041,   -12.649,   600.000,  -600.000,1.01310,     0,   100.000, 0.00000E+0, 1.00000E+0, 0.00000E+0, 0.00000E+0,1.00000,1,  100.0,    81.621,     0.000,   1,1.0000,0,1,0,1,0,1,0,1
    52,'99',    63.490,   -43.488,   600.000,  -600.000,1.00510,     0,   100.000, 0.00000E+0, 1.00000E+0, 0.00000E+0, 0.00000E+0,1.00000,1,  100.0,   132.664,     0.000,   1,1.0000,0,1,0,1,0,1,0,1
    55,'99',    79.562,   -14.478,   600.000,  -600.000,1.01080,     0,   100.000, 0.00000E+0, 1.00000E+0, 0.00000E+0, 0.00000E+0,1.00000,1,  100.0,   161.500,     0.000,   1,1.0000,0,1,0,1,0,1,0,1
    59,'1 ',   283.000,   211.363,   254.700,  -254.700,1.04000,     0,   100.000, 0.00000E+0, 1.00000E+0, 0.00000E+0, 0.00000E+0,1.00000,1,  100.0,   353.750,     3.833,   1,1.0000,0,1,0,1,0,1,0,1
    65,'1 ',     0.000,     0.000,   226.800,  -226.800,1.01660,    16,    27.800, 0.00000E+0, 3.20000E-1, 0.00000E+0, 0.00000E+0,1.00000,0,  100.0,   315.000,     7.393,   1,1.0000,0,1,0,1,0,1,0,1
    65,'2 ',     0.000,     0.000,     9.267,    -9.267,1.01660,    16,    27.800, 0.00000E+0, 3.20000E-1, 0.00000E+0, 0.00000E+0,1.00000,0,  100.0,    25.200,     4.750,   1,1.0000,0,1,0,1,0,1,0,1
    71,'99',    34.492,   -11.630,   600.000,  -600.000,1.01590,     0,   100.000, 0.00000E+0, 1.00000E+0, 0.00000E+0, 0.00000E+0,1.00000,1,  100.0,    80.636,     0.000,   1,1.0000,0,1,0,1,0,1,0,1
    80,'1 ',     0.000,     0.000,     9.267,    -9.267,1.01660,    16,    27.800, 0.00000E+0, 3.20000E-1, 0.00000E+0, 0.00000E+0,1.00000,0,  100.0,    26.250,     4.750,   1,1.0000,0,1,0,1,0,1,0,1
    80,'2 ',     0.000,     0.000,     9.267,    -9.267,1.01660,    16,    27.800, 0.00000E+0, 3.20000E-1, 0.00000E+0, 0.00000E+0,1.00000,0,  100.0,    25.200,     1.900,   1,1.0000,0,1,0,1,0,1,0,1
    86,'99',    44.741,    -1.572,   600.000,  -600.000,1.01070,     0,   100.000, 0.00000E+0, 1.00000E+0, 0.00000E+0, 0.00000E+0,1.00000,1,  100.0,    99.024,     0.000,   1,1.0000,0,1,0,1,0,1,0,1
    87,'1 ',     0.000,     0.000,   234.900,  -234.900,1.00510,     0,   100.000, 0.00000E+0, 1.00000E+0, 0.00000E+0, 0.00000E+0,1.00000,0,  100.0,   326.250,     0.000,   1,1.0000,0,1,0,1,0,1,0,1
    90,'99',    28.996,    14.456,   600.000,  -600.000,1.00780,     0,   100.000, 0.00000E+0, 1.00000E+0, 0.00000E+0, 0.00000E+0,1.00000,1,  100.0,    70.774,     0.000,   1,1.0000,0,1,0,1,0,1,0,1
    93,'99',     6.803,   -55.148,   600.000,  -600.000,1.01610,     0,   100.000, 0.00000E+0, 1.00000E+0, 0.00000E+0, 0.00000E+0,1.00000,1,  100.0,   315.000,     0.000,   1,1.0000,0,1,0,1,0,1,0,1
    98,'99',    50.268,   -25.234,    33.333,   -33.333,1.01935,     0,   100.000, 0.00000E+0, 1.00000E+0, 0.00000E+0, 0.00000E+0,1.00000,0,  100.0,    65.268,    50.268,   1,1.0000,0,1,0,1,0,1,0,1
    99,'1 ',     0.000,     0.000,   129.375,  -129.375,1.02455,     0,   163.450, 0.00000E+0, 1.80000E-1, 0.00000E+0, 0.00000E+0,1.00000,0,  100.0,   179.688,    70.000,   1,1.0000,0,1,0,1,0,1,0,1
   100,'1 ',     0.000,     0.000,   129.375,  -129.375,1.02455,     0,   148.190, 0.00000E+0, 1.80000E-1, 0.00000E+0, 0.00000E+0,1.00000,0,  100.0,   179.688,    70.000,   1,1.0000,0,1,0,1,0,1,0,1
   100,'99',    13.104,     4.798,    33.333,   -33.333,1.02455,     0,   100.000, 0.00000E+0, 1.00000E+0, 0.00000E+0, 0.00000E+0,1.00000,0,  100.0,    28.104,    13.104,   1,1.0000,0,1,0,1,0,1,0,1
   116,'1 ',     0.000,     0.000,   123.750,  -123.750,1.02455,     0,   147.700, 0.00000E+0, 1.80000E-1, 0.00000E+0, 0.00000E+0,1.00000,0,  100.0,   171.875,    32.000,   1,1.0000,0,1,0,1,0,1,0,1
   117,'1 ',     0.000,     0.000,    37.667,   -37.667,1.02455,     0,   113.000, 0.00000E+0, 1.80000E-1, 0.00000E+0, 0.00000E+0,1.00000,0,  100.0,   113.000,    32.000,   1,1.0000,0,1,0,1,0,1,0,1
   121,'1 ',     0.000,     0.000,    45.000,   -45.000,1.02455,     0,   135.000, 0.00000E+0, 1.80000E-1, 0.00000E+0, 0.00000E+0,1.00000,0,  100.0,   135.000,    35.000,   1,1.0000,0,1,0,1,0,1,0,1
   131,'1 ',     0.000,     0.000,     8.333,    -8.333,1.02182,     0,    25.000, 0.00000E+0, 2.00000E-1, 0.00000E+0, 0.00000E+0,1.00000,0,  100.0,    25.000,    10.000,   1,1.0000,0,1,0,1,0,1,0,1
   131,'2 ',     0.000,     0.000,     8.333,    -8.333,1.02182,     0,    25.000, 0.00000E+0, 2.00000E-1, 0.00000E+0, 0.00000E+0,1.00000,0,  100.0,    25.000,    10.000,   1,1.0000,0,1,0,1,0,1,0,1
   131,'3 ',     0.000,     0.000,   195.000,  -172.000,1.02182,     0,    30.000, 0.00000E+0, 2.00000E-1, 0.00000E+0, 0.00000E+0,1.00000,0,  100.0,    39.062,    10.000,   1,1.0000,0,1,0,1,0,1,0,1
   131,'4 ',     0.000,     0.000,   177.000,  -168.000,1.02182,     0,    25.000, 0.00000E+0, 2.00000E-1, 0.00000E+0, 0.00000E+0,1.00000,0,  100.0,    31.250,    10.000,   1,1.0000,0,1,0,1,0,1,0,1
   133,'99',     2.396,    -1.381,    33.333,   -33.333,1.02260,     0,   100.000, 0.00000E+0, 1.00000E+0, 0.00000E+0, 0.00000E+0,1.00000,0,  100.0,   295.000,     2.396,   1,1.0000,0,1,0,1,0,1,0,1
   134,'1 ',     0.000,     0.000,    16.667,   -16.667,1.02455,     0,    50.000, 0.00000E+0, 2.00000E-1, 0.00000E+0, 0.00000E+0,1.00000,0,  100.0,    50.000,    10.000,   1,1.0000,0,1,0,1,0,1,0,1
   151,'1 ',     0.000,     0.000,   108.000,  -108.000,1.02455,     0,   120.000, 0.00000E+0, 1.80000E-1, 0.00000E+0, 0.00000E+0,1.00000,0,  100.0,   150.000,    70.000,   1,1.0000,0,1,0,1,0,1,0,1
   151,'2 ',   120.000,   108.000,   108.000,  -108.000,1.02455,     0,   120.000, 0.00000E+0, 1.80000E-1, 0.00000E+0, 0.00000E+0,1.00000,1,  100.0,   150.000,    58.333,   1,1.0000,0,1,0,1,0,1,0,1
   152,'1 ',   149.993,   112.014,   134.994,  -134.994,1.02455,     0,   144.000, 0.00000E+0, 1.80000E-1, 0.00000E+0, 0.00000E+0,1.00000,1,  100.0,   187.491,    79.000,   1,1.0000,0,1,0,1,0,1,0,1
   152,'2 ',     0.000,     0.000,    36.667,   -36.667,1.02455,     0,   110.000, 0.00000E+0, 1.80000E-1, 0.00000E+0, 0.00000E+0,1.00000,0,  100.0,   110.000,    79.000,   1,1.0000,0,1,0,1,0,1,0,1
   156,'99',    47.466,    43.051,    33.333,   -33.333,1.02608,     0,   100.000, 0.00000E+0, 1.00000E+0, 0.00000E+0, 0.00000E+0,1.00000,0,  100.0,    62.466,    47.466,   1,1.0000,0,1,0,1,0,1,0,1
   159,'99',     0.086,    79.793,   600.000,  -600.000,1.01930,     0,   100.000, 0.00000E+0, 1.00000E+0, 0.00000E+0, 0.00000E+0,1.00000,1,  100.0,   366.250,     0.000,   1,1.0000,0,1,0,1,0,1,0,1
   190,'99',    41.608,   119.731,   600.000,  -600.000,1.03300,     0,   100.000, 0.00000E+0, 1.00000E+0, 0.00000E+0, 0.00000E+0,1.00000,1,  100.0,    99.579,     0.000,   1,1.0000,0,1,0,1,0,1,0,1
   221,'1 ',     0.000,     0.000,   123.333,  -123.333,1.02864,     0,   370.000, 0.00000E+0, 2.10000E-1, 0.00000E+0, 0.00000E+0,1.00000,0,  100.0,   370.000,   240.000,   1,1.0000,0,1,0,1,0,1,0,1
   221,'2 ',     0.000,     0.000,   123.333,  -123.333,1.02864,     0,   370.000, 0.00000E+0, 2.10000E-1, 0.00000E+0, 0.00000E+0,1.00000,0,  100.0,   370.000,   240.000,   1,1.0000,0,1,0,1,0,1,0,1
   221,'3 ',     0.000,     0.000,   388.125,  -388.125,1.02864,     0,   449.450, 0.00000E+0, 2.10000E-1, 0.00000E+0, 0.00000E+0,1.00000,0,  100.0,   539.062,   240.000,   1,1.0000,0,1,0,1,0,1,0,1
   222,'1 ',   462.500,   181.127,   416.250,  -416.250,1.02864,     0,   455.560, 0.00000E+0, 2.10000E-1, 0.00000E+0, 0.00000E+0,1.00000,1,  100.0,   578.125,   240.000,   1,1.0000,0,1,0,1,0,1,0,1
   222,'2 ',     0.000,     0.000,   333.000,  -333.000,1.02864,     0,   397.310, 0.00000E+0, 2.10000E-1, 0.00000E+0, 0.00000E+0,1.00000,0,  100.0,   462.500,   240.000,   1,1.0000,0,1,0,1,0,1,0,1
   223,'1 ',   437.080,   -11.736,   981.927,  -981.927,1.01200,     0,   616.840, 0.00000E+0, 2.35000E-1, 0.00000E+0, 0.00000E+0,1.00000,1,  100.0,  1363.788,   350.876,   1,1.0000,0,1,0,1,0,1,0,1
   223,'2 ',   437.080,   -11.736,   981.927,  -981.927,1.01200,     0,   616.840, 0.00000E+0, 2.35000E-1, 0.00000E+0, 0.00000E+0,1.00000,1,  100.0,  1363.788,   350.876,   1,1.0000,0,1,0,1,0,1,0,1
   223,'3 ',   437.080,   -11.736,   981.927,  -981.927,1.01200,     0,   616.840, 0.00000E+0, 2.35000E-1, 0.00000E+0, 0.00000E+0,1.00000,1,  100.0,  1363.788,   350.876,   1,1.0000,0,1,0,1,0,1,0,1
   224,'1 ',     0.000,     0.000,   416.250,  -416.250,1.01200,     0,   451.840, 0.00000E+0, 2.10000E-1, 0.00000E+0, 0.00000E+0,1.00000,0,  100.0,   578.125,   240.000,   1,1.0000,0,1,0,1,0,1,0,1
   224,'2 ',   425.000,   121.811,   382.500,  -382.500,1.01200,     0,   416.510, 0.00000E+0, 2.10000E-1, 0.00000E+0, 0.00000E+0,1.00000,1,  100.0,   531.250,   240.000,   1,1.0000,0,1,0,1,0,1,0,1
   224,'3 ',   425.000,   121.811,   382.500,  -382.500,1.01200,     0,   416.510, 0.00000E+0, 2.10000E-1, 0.00000E+0, 0.00000E+0,1.00000,1,  100.0,   531.250,   240.000,   1,1.0000,0,1,0,1,0,1,0,1
   233,'99',    98.896,    -5.808,   600.000,  -600.000,1.00410,     0,   100.000, 0.00000E+0, 1.00000E+0, 0.00000E+0, 0.00000E+0,1.00000,1,  100.0,   221.800,     0.000,   1,1.0000,0,1,0,1,0,1,0,1
   236,'1 ',     0.000,     0.000,   123.750,  -123.750,1.02045,     0,   166.810, 0.00000E+0, 1.80000E-1, 0.00000E+0, 0.00000E+0,1.00000,0,  100.0,   171.875,    91.667,   1,1.0000,0,1,0,1,0,1,0,1
   236,'98',     0.000,   104.024,   371.000,  -371.000,1.02045,     0,   120.000, 0.00000E+0, 1.80000E-1, 0.00000E+0, 0.00000E+0,1.00000,1,  100.0,   150.000,     0.000,   1,1.0000,0,1,0,1,0,1,0,1
   246,'1 ',   437.500,    82.028,   393.750,  -393.750,1.01364,     0,   477.900, 0.00000E+0, 2.10000E-1, 0.00000E+0, 0.00000E+0,1.00000,1,  100.0,   546.875,   240.000,   1,1.0000,0,1,0,1,0,1,0,1
   250,'1 ',     0.000,     0.000,   190.000,  -179.000,1.02182,     0,    30.000, 0.00000E+0, 2.00000E-1, 0.00000E+0, 0.00000E+0,1.00000,0,  100.0,    37.500,     0.000,   1,1.0000,0,1,0,1,0,1,0,1
   256,'1 ',   254.000,    -2.621,   228.600,  -228.600,1.02455,     0,     0.430, 0.00000E+0, 2.00000E-1, 0.00000E+0, 0.00000E+0,1.00000,1,  100.0,   317.500,     0.000,   1,1.0000,0,1,0,1,0,1,0,1
   267,'99',     6.025,    11.566,   600.000,  -600.000,1.01000,     0,   100.000, 0.00000E+0, 1.00000E+0, 0.00000E+0, 0.00000E+0,1.00000,1,  100.0,   367.500,     0.000,   1,1.0000,0,1,0,1,0,1,0,1
   268,'99',   223.610,   168.126,   600.000,  -600.000,1.01800,     0,   100.000, 0.00000E+0, 1.00000E+0, 0.00000E+0, 0.00000E+0,1.00000,1,  100.0,   501.500,     0.000,   1,1.0000,0,1,0,1,0,1,0,1
   272,'99',    35.007,    40.711,   600.000,  -600.000,1.01940,     0,   100.000, 0.00000E+0, 1.00000E+0, 0.00000E+0, 0.00000E+0,1.00000,1,  100.0,    93.094,     0.000,   1,1.0000,0,1,0,1,0,1,0,1
   275,'99',     3.353,   -39.299,   600.000,  -600.000,1.01850,     0,   100.000, 0.00000E+0, 1.00000E+0, 0.00000E+0, 0.00000E+0,1.00000,1,  100.0,    91.321,     0.000,   1,1.0000,0,1,0,1,0,1,0,1
   281,'99',     4.088,     2.587,   600.000,  -600.000,1.01020,     0,   100.000, 0.00000E+0, 1.00000E+0, 0.00000E+0, 0.00000E+0,1.00000,1,  100.0,   340.000,     0.000,   1,1.0000,0,1,0,1,0,1,0,1
   293,'1 ',     0.000,     0.000,    76.667,   -76.667,1.02590,   322,   230.000, 2.30000E-3, 1.68000E-1, 0.00000E+0, 0.00000E+0,1.02500,0,  100.0,   173.250,   117.800,   1,1.0000,0,1,0,1,0,1,0,1
   296,'1 ',     0.000,     0.000,    76.667,   -76.667,1.02590,   322,   230.000, 2.30000E-3, 1.68000E-1, 0.00000E+0, 0.00000E+0,1.02500,0,  100.0,   173.250,   117.800,   1,1.0000,0,1,0,1,0,1,0,1
   298,'99',     9.136,     8.505,   600.000,  -600.000,1.02780,     0,   100.000, 0.00000E+0, 1.00000E+0, 0.00000E+0, 0.00000E+0,1.00000,1,  100.0,    35.141,     0.000,   1,1.0000,0,1,0,1,0,1,0,1
   304,'99',    29.434,     2.277,    33.333,   -33.333,1.01312,     0,   100.000, 0.00000E+0, 1.00000E+0, 0.00000E+0, 0.00000E+0,1.00000,0,  100.0,    44.434,    29.434,   1,1.0000,0,1,0,1,0,1,0,1
   305,'1 ',     0.000,     0.000,    76.667,   -76.667,1.02590,   265,   230.000, 2.20000E-3, 1.72800E-1, 0.00000E+0, 0.00000E+0,1.02500,0,  100.0,   173.250,   117.800,   1,1.0000,0,1,0,1,0,1,0,1
   307,'99',    15.245,     5.240,   600.000,  -600.000,1.00640,     0,   100.000, 0.00000E+0, 1.00000E+0, 0.00000E+0, 0.00000E+0,1.00000,1,  100.0,    46.103,     0.000,   1,1.0000,0,1,0,1,0,1,0,1
   309,'1 ',     0.000,     0.000,   444.271,  -444.271,1.01000,   308,   300.000, 0.00000E+0, 2.07000E-1, 0.00000E+0, 0.00000E+0,1.00000,0,  100.0,   617.042,   198.808,   1,1.0000,0,1,0,1,0,1,0,1
   326,'1 ',     0.000,     0.000,    76.667,   -76.667,1.02590,   265,   230.000, 2.20000E-3, 1.72800E-1, 0.00000E+0, 0.00000E+0,1.02500,0,  100.0,   173.250,   117.800,   1,1.0000,0,1,0,1,0,1,0,1
   335,'1 ',     0.000,     0.000,    76.667,   -76.667,1.02590,   265,   230.000, 2.20000E-3, 1.72800E-1, 0.00000E+0, 0.00000E+0,1.02500,0,  100.0,   173.250,   117.800,   1,1.0000,0,1,0,1,0,1,0,1
   337,'99',     4.376,     4.396,   600.000,  -600.000,1.01000,     0,   100.000, 0.00000E+0, 1.00000E+0, 0.00000E+0, 0.00000E+0,1.00000,1,  100.0,   323.750,     0.000,   1,1.0000,0,1,0,1,0,1,0,1
   342,'1 ',     0.000,     0.000,   245.700,  -245.700,1.03000,     0,   100.000, 0.00000E+0, 1.00000E+0, 0.00000E+0, 0.00000E+0,1.00000,0,  100.0,   341.250,     0.000,   1,1.0000,0,1,0,1,0,1,0,1
   345,'99',     8.556,     6.881,   600.000,  -600.000,1.02780,     0,   100.000, 0.00000E+0, 1.00000E+0, 0.00000E+0, 0.00000E+0,1.00000,1,  100.0,    34.101,     0.000,   1,1.0000,0,1,0,1,0,1,0,1
   350,'99',    78.341,    -6.738,   600.000,  -600.000,1.00180,     0,   100.000, 0.00000E+0, 1.00000E+0, 0.00000E+0, 0.00000E+0,1.00000,1,  100.0,   159.310,     0.000,   1,1.0000,0,1,0,1,0,1,0,1
   352,'1 ',     0.000,     0.000,   302.333,  -302.333,1.02590,   277,   907.000, 3.80000E-3, 2.20000E-1, 0.00000E+0, 0.00000E+0,1.00000,0,  100.0,   254.000,     0.000,   1,1.0000,0,1,0,1,0,1,0,1
   353,'99',    58.608,  -124.552,   600.000,  -600.000,1.00630,     0,   100.000, 0.00000E+0, 1.00000E+0, 0.00000E+0, 0.00000E+0,1.00000,1,  100.0,   147.834,     0.000,   1,1.0000,0,1,0,1,0,1,0,1
   357,'99',   122.965,   -29.975,    33.333,   -33.333,1.01000,     0,   100.000, 0.00000E+0, 1.00000E+0, 0.00000E+0, 0.00000E+0,1.00000,0,  100.0,   137.965,   122.965,   1,1.0000,0,1,0,1,0,1,0,1
   361,'99',   296.081,  -152.646,   600.000,  -600.000,1.01000,     0,   100.000, 0.00000E+0, 1.00000E+0, 0.00000E+0, 0.00000E+0,1.00000,1,  100.0,   625.135,     0.000,   1,1.0000,0,1,0,1,0,1,0,1
   364,'99',    27.029,   -71.598,    33.333,   -33.333,1.00286,     0,   100.000, 0.00000E+0, 1.00000E+0, 0.00000E+0, 0.00000E+0,1.00000,0,  100.0,    42.029,    27.029,   1,1.0000,0,1,0,1,0,1,0,1
   370,'1 ',     0.000,     0.000,   228.552,  -228.552,1.01125,     0,   216.550, 0.00000E+0, 1.80000E-1, 0.00000E+0, 0.00000E+0,1.00000,0,  100.0,   317.434,    99.538,   1,1.0000,0,1,0,1,0,1,0,1
   370,'2 ',     0.000,     0.000,   228.552,  -228.552,1.01125,     0,   179.000, 0.00000E+0, 1.80000E-1, 0.00000E+0, 0.00000E+0,1.00000,0,  100.0,   317.434,    99.538,   1,1.0000,0,1,0,1,0,1,0,1
   370,'3 ',     0.000,     0.000,   228.552,  -228.552,1.01125,     0,   179.000, 0.00000E+0, 1.80000E-1, 0.00000E+0, 0.00000E+0,1.00000,0,  100.0,   317.434,    99.538,   1,1.0000,0,1,0,1,0,1,0,1
   371,'1 ',     0.000,     0.000,   161.100,  -161.100,1.01125,     0,   179.000, 0.00000E+0, 1.80000E-1, 0.00000E+0, 0.00000E+0,1.00000,0,  100.0,   223.750,  -200.000,   1,1.0000,0,1,0,1,0,1,0,1
   373,'1 ',     0.000,     0.000,    49.500,  -185.000,1.01909,     0,    58.990, 0.00000E+0, 2.00000E-1, 0.00000E+0, 0.00000E+0,1.00000,0,  100.0,    68.750,    26.000,   1,1.0000,0,1,0,1,0,1,0,1
   374,'1 ',     0.000,     0.000,    18.333,   -18.333,1.01909,     0,    55.000, 0.00000E+0, 2.00000E-1, 0.00000E+0, 0.00000E+0,1.00000,0,  100.0,    55.000,    26.000,   1,1.0000,0,1,0,1,0,1,0,1
   375,'1 ',     0.000,     0.000,   264.600,  -264.600,1.02182,     0,     0.360, 0.00000E+0, 2.00000E-1, 0.00000E+0, 0.00000E+0,1.00000,0,  100.0,   367.500,     0.000,   1,1.0000,0,1,0,1,0,1,0,1
   376,'1 ',     0.000,     0.000,   193.000,  -169.000,1.02727,     0,    26.000, 0.00000E+0, 2.00000E-1, 0.00000E+0, 0.00000E+0,1.00000,0,  100.0,    32.500,     0.000,   1,1.0000,0,1,0,1,0,1,0,1
...